$# LS-DYNA Keyword file created by LS-PrePost 4.0 - 28Jan2013(19:00)
$# Created on Feb-12-2016 (08:44:34)
*KEYWORD
*TITLE
$# title
Analysis of Containment Behavior under aircraft impact
*CONTROL_HOURGLASS
$#     ihq        qh
         1  0.100000
*CONTROL_TERMINATION
$#  endtim    endcyc     dtmin    endeng    endmas
 1000.0000         0     0.000     0.000     0.000
*CONTROL_TIMESTEP
$#  dtinit    tssfac      isdo    tslimt     dt2ms      lctm     erode     ms1st
     0.000  0.600000         0     0.000 -1.000E-6         0         1         0
$#  dt2msf   dt2mslc     imscl    unused    unused     rmscl
     0.000         0         0                         0.000
*DATABASE_DEFORC
$#      dt    binary      lcur     ioopt
  0.500000         0         0         1
*DATABASE_GLSTAT
$#      dt    binary      lcur     ioopt
  0.500000         0         0         1
*DATABASE_GLSTAT_MASS_PROPERTIES
$#      dt    binary      lcur     ioopt
  0.500000         0         0         1
*DATABASE_MATSUM
$#      dt    binary      lcur     ioopt
  0.500000         0         0         1
*DATABASE_NODFOR
$#      dt    binary      lcur     ioopt
  0.500000         0         0         1
*DATABASE_NODOUT
$#      dt    binary      lcur     ioopt   option1   option2
  0.500000         0         0         1     0.000         0
*DATABASE_RCFORC
$#      dt    binary      lcur     ioopt
  0.500000         0         0         1
*DATABASE_SPCFORC
$#      dt    binary      lcur     ioopt
  0.500000         0         0         1
*DATABASE_BINARY_D3PLOT
$#      dt      lcdt      beam     npltc    psetid
  0.500000         0         0         0         0
$#   ioopt
         0
*DATABASE_EXTENT_BINARY
$#   neiph     neips    maxint    strflg    sigflg    epsflg    rltflg    engflg
         0        10         9         0         1         1         1         1
$#  cmpflg    ieverp    beamip     dcomp      shge     stssz    n3thdt   ialemat
         0         0         0         1         1         1         2         1
$# nintsld   pkp_sen      sclp    unused     msscl     therm    intout    nodout
         0         0  1.000000                   0         0STRESS    STRESS
$#    dtdt    resplt
         0         0
*BOUNDARY_SPC_SET_ID
$#      id                                                               heading
         1Soil/Structure
$#    nsid       cid      dofx      dofy      dofz     dofrx     dofry     dofrz
         1         0         1         1         1         1         1         1
*SET_NODE_LIST_TITLE
Soil/Structure
$#     sid       da1       da2       da3       da4    solver
         1     0.000     0.000     0.000     0.000MECH
$#    nid1      nid2      nid3      nid4      nid5      nid6      nid7      nid8
     30436     30437     30438     30439     30440     30441     30709     30744
     30745     30746     30747     30748     30749     30996     30997     30998
     30999     31000     31001     31002     31003     31004     31005     31006
     31007     31008     31009     31010     31011     31012     31013     31796
     31797     31798     31799     31800     31801     31802     31803     32216
     32217     32218     32219     32220     32221     32565     32601     32602
     32603     32604     32605     32606     32607     32608     32609     32610
     32611     36963     36964     36965     36966     36967     37138     37139
     37140     37141     37142     37143     37144     37145     37418     37419
     37420     37421     37422     37423     37628     37629     37630     37631
     37632     37633     37634     37635     37636     37637     37638     38111
     38147     38148     38149     38150     38151     38152     38153     38154
     38155     38156     38157     38158     38159     38160     38161     38162
     38163     38164     38973     39008     39009     39010     39011     39012
     39183     39184     39185     39186     39187     39188     39189     39190
     39191     39192     39193     39194     39195     39196     39197     39198
     39199     39200     40041     40042     40043     40044     40045     40046
     40047     40048     40049     40050     40051     40052     40053     40054
     40055     40056     40057     40058         0         0         0         0
*LOAD_NODE_SET
$#    nsid       dof      lcid        sf       cid        m1        m2        m3
         2         1         1  1.000000         0         0         0         0
         3         1         2  1.000000         0         0         0         0
*PART_COMPOSITE
$# title
Containment
$#     pid    elform      shrf      nloc     marea      hgid    adpopt  ithelfrm
         1         2     0.000 -1.000000     0.000         1         0         0
$#    mid1    thick1        b1    ithid1      mid2    thick2        b2    ithid2
         1 25.000000     0.000         0         2 260.00000     0.000         0
         3 90.000000     0.000         0         1 262.50000     0.000         0
         2 262.50000     0.000         0         1 262.50000     0.000         0
         1 262.50000     0.000         0         3 90.000000     0.000         0
         2 260.00000     0.000         0         1 25.000000     0.000         0
*HOURGLASS
$#    hgid       ihq        qm       ibq        q1        q2    qb/vdc        qw
         1         1  0.100000         0  1.500000  0.060000  0.100000  0.100000
*MAT_CONCRETE_EC2_TITLE
Plain concrete
$#     mid        ro        fc        ft     typec     unitc    ecuten      fcc6
         1  0.002500 37.500000  4.700000  1.000000  1.000000     0.000     0.000
$# esoft     lchar        mu    taumxf    taumxc    ecragg     aggsz     unitl
             0.000     0.000  0.400000     0.000     0.000     0.000     0.000
$# ymreinf    prrinf   sureinf     typer    fracrx    fracry     lcrsu    lcalps
 2.0000E+5     0.000 390.00000  1.000000     0.000     0.000         0         0
$#    aopt      et36    prt36     ecut36    lcalpc    degrad    ishchk    unlfac
     0.000 29.000000  0.200000 37.500000         0     0.000         0     0.000
*MAT_CONCRETE_EC2_TITLE
Reinforced Concrete
$#     mid        ro        fc        ft     typec     unitc    ecuten      fcc6
         2  0.002500 37.500000  4.700000  1.000000  1.000000     0.000     0.000
$# esoft     lchar        mu    taumxf    taumxc    ecragg     aggsz     unitl
             0.000     0.000  0.400000     0.000     0.000     0.000     0.000
$# ymreinf    prrinf   sureinf     typer    fracrx    fracry     lcrsu    lcalps
 2.0000E+5  0.300000 390.00000  1.000000  0.600000  0.600000         0         0
$#    aopt      et36    prt36     ecut36    lcalpc    degrad    ishchk    unlfac
     0.000 29000.000000     0.000     37.500         0     0.000         0  1.000000
*MAT_CONCRETE_EC2_TITLE
Reinforced Concrete 2
$#     mid        ro        fc        ft     typec     unitc    ecuten      fcc6
         3  0.002500 37.500000  4.700000  1.000000  1.000000     0.000     0.000
$# esoft     lchar        mu    taumxf    taumxc    ecragg     aggsz     unitl
             0.000     0.000  0.400000     0.000     0.000     0.000     0.000
$# ymreinf    prrinf   sureinf     typer    fracrx    fracry     lcrsu    lcalps
 2.0000E+5     0.300 390.00000  1.000000  0.150000  0.150000         0         0
$#    aopt      et36    prt36     ecut36    lcalpc    degrad    ishchk    unlfac
     0.000 29000.000000  0.200000 37.500000         0     0.000         0     0.000
*DEFINE_CURVE_TITLE
Fuselage force
$#    lcid      sidr       sfa       sfo      offa      offo    dattyp
         1         0  1.000000-6369.0000     0.000     0.000         0
$#                a1                  o1
               0.000               0.000
            0.250000            0.125000
            0.500000            0.250000
            1.000000            0.500000
            2.000000            1.000000
            5.000000            2.500000
           10.000000            5.000000
           15.000000            7.500000
           20.000000           10.000000
           25.000000           12.500000
           30.000000           13.750000
           35.000000           15.000000
           40.000000           16.250000
           45.000000           18.500000
           50.000000           20.000000
           55.000000           20.000000
           60.000000           20.000000
           65.000000           20.000000
           70.000000           20.000000
           75.000000           20.000000
$ ... 55 like lines cut
*DEFINE_CURVE_TITLE
Wings force
$#    lcid      sidr       sfa       sfo      offa      offo    dattyp
         2         0  1.000000-2212.0000     0.000     0.000         0
$#                a1                  o1
               0.000               0.000
            0.250000               0.000
            0.500000               0.000
            1.000000               0.000
            2.000000               0.000
            5.000000               0.000
           10.000000               0.000
           15.000000               0.000
           20.000000               0.000
           25.000000               0.000
           30.000000               0.000
           35.000000               0.000
           40.000000               0.000
           45.000000               0.000
           50.000000               0.000
           55.000000               0.000
           60.000000               0.000
           65.000000               0.000
           70.000000               0.000
           75.000000               0.000
$ ... 55 like lines cut
*SET_NODE_LIST_TITLE
Fuselage
$#     sid       da1       da2       da3       da4    solver
         2     0.000     0.000     0.000     0.000MECH
$#    nid1      nid2      nid3      nid4      nid5      nid6      nid7      nid8
     30071     30075     30076     30077     30078     30269     30274     30275
     30276     30277     30278     30279     30958     30959     30960     30961
     30971     31732     31733     31736     31737     41481     41485     41486
     41513     41514     41516     41521     41522     41523     41524     41525
     41526     41527     41528     41529     41530     41893     41894     41895
     41896     41897     41898     41899     41900     41901     41902     41903
     41904     41907     41908     41912     41915     41916     41935     41936
     41937     41938     41939     41940     41941     41942     41943     41944
     41945     41946     41947     41948     41949     41950     41956     41957
     41958     41977     41978     41979     41980     41981     41982     41983
     41984     41986     41987     41988     41989     41990     41991     41992
     42046     42055     42056     42647     42648     42650     42663     42673
     42674     42675     42676     42679     42680     42681     42682     43045
     43046     43047     43048     43051     43052     43053     43054     43055
     43056     43059     43060     43061     43062     43063     43064     43067
     43068     43069     43070     43071     43072     43073     43074     43077
     43078     43079     43080     43081     43082     43083     43084     43086
     43087     43088     43089     43090     43091     43092     43094     43097
     43098     43103     43105     43106     43107     43266     43299     43300
     41953     30285     43294     42050     30088         0         0         0
*SET_NODE_LIST_TITLE
Wings
$#     sid       da1       da2       da3       da4    solver
         3     0.000     0.000     0.000     0.000MECH
$#    nid1      nid2      nid3      nid4      nid5      nid6      nid7      nid8
     30242     30245     30246     30247     30248     30249     30250     30251
     30252     30270     30271     30272     30273     36639     36640     36641
     36642     36643     42023     42024     42029     42030     42037     42038
     42045     42183     42184     42189     42190     42197     42198     42205
     42206     42213     42214     42221     42222     42229     42230     42239
     42240     46054     46055     46060     46061     46068     46069     30243
     30244     30253     30254     41831     41832     41833     41834     41837
     41838     41839     41840     41843     41844     41845     41846     41847
     41848     41851     41852     41853     41854     41855     41856     41859
     41860     41861     41862     41863     41864     41867     41868     41869
     41870     41871     41872     41875     41876     41877     41878     41879
     41880     41883     41884     41885     41886     41887     41888     41891
     41892     41993     41994     41995     41996     41999     42000     42001
     42002     42003     42004     42007     42008     42009     42010     42011
     42012     42017     42018     44365     44366     44367     44368     44373
     44374     44375     44376     44379     44380     44381     44382     44383
     44384     44387     44388     44389     44390     44391     44392     44395
     44396     41985     30256     30258     30260     30262     30264     30266
     30268     30283     36645     36647     36649     41769     41772     41775
     41778     41782     41783     41786     41790     41791     41794     41798
$ ... 37 like lines cut
*DAMPING_GLOBAL
$#    lcid    valdmp       stx       sty       stz       srx       sry       srz
         0  0.070000     0.000     0.000     0.000     0.000     0.000     0.000
*ELEMENT_SHELL
$$$$$$$$$$$$$$$$$$$$$$$$$$$$$$$$$$$$$$$$$$$$$$$$$$$$$$$$$$$$$$$$$$$$$$$$$$$$$$$$
$                             ELEMENT DEFINITIONS                              $
$$$$$$$$$$$$$$$$$$$$$$$$$$$$$$$$$$$$$$$$$$$$$$$$$$$$$$$$$$$$$$$$$$$$$$$$$$$$$$$$
$#   eid     pid      n1      n2      n3      n4      n5      n6      n7      n8
   30001       1   45660   45661   30003   45669       0       0       0       0
   30002       1   45665   45666   30004   45674       0       0       0       0
   30003       1   45670   45671   30005   45679       0       0       0       0
   30004       1   45675   45676   30006   45684       0       0       0       0
   30005       1   45680   45681   30002   30008       0       0       0       0
   30006       1   45685   45704   45720   45729       0       0       0       0
   30007       1   45695   45714   45709   45710       0       0       0       0
   30008       1   45705   45724   45690   45699       0       0       0       0
   30009       1   45715   45734   30012   30013       0       0       0       0
   30010       1   45725   45784   30007   30010       0       0       0       0
   30011       1   45735   45736   30020   45744       0       0       0       0
   30012       1   45740   45741   30021   45749       0       0       0       0
   30013       1   45745   45746   30022   45754       0       0       0       0
   30014       1   45750   45751   30023   45759       0       0       0       0
   30015       1   45755   45756   30024   45764       0       0       0       0
   30016       1   45760   45761   30025   45769       0       0       0       0
   30017       1   45765   45766   30026   45774       0       0       0       0
   30018       1   45770   45771   30019   30028       0       0       0       0
   30019       1   45775   45794   45840   45849       0       0       0       0
   30020       1   45785   45804   45829   45830       0       0       0       0
$ ... 17786 like lines cut
*NODE
$#   nid               x               y               z      tc      rc
   30001       24999.943           0.000       50000.426       0       0
   30002       24545.150       4746.8271       50000.426       0       0
   30003       24981.680       954.93164       50000.426       0       0
   30004       24926.998       1908.4659       50000.426       0       0
   30005       24835.904       2859.2173       50000.426       0       0
   30006       24708.621       3805.8018       50000.426       0       0
   30007       24545.150       4746.8271       48080.285       0       0
   30008       24545.150       4746.8271       49360.414       0       0
   30009       24999.943           0.000       48080.285       0       0
   30010       24603.598       4433.8716       48080.285       0       0
   30011       24658.049       4120.1392       48080.285       0       0
   30012       24708.621       3805.8018       48080.285       0       0
   30013       24755.082       3490.8254       48080.285       0       0
   30014       24999.943           0.000       48400.344       0       0
   30015       24981.680       954.93164       49040.355       0       0
   30016       24926.998       1908.4659       49040.355       0       0
   30017       24835.904       2859.2173       49040.355       0       0
   30018       24708.621       3805.8018       49040.355       0       0
   30019       21558.514       12658.190       50000.426       0       0
   30020       24321.406       5785.0557       50000.426       0       0
$ ... 17861 like lines cut
*END
